STM32
*SPICE Netlist generated by Advanced Sim server on 1/5/2025 1:35:51 PM
.options MixedSimGenerated

.SAVE allV
.SAVE allI
.SAVE allP

.PLOT {V(+3.3V)} =PLOT(1) =AXIS(1)

*Selected Circuit Analyses:
.TRAN 20.00n 5.000u 0 20.00n
.OP

.END